Version 4
SHEET 1 880 680
WIRE -96 16 -96 -16
WIRE 80 144 -272 144
WIRE -272 160 -272 144
WIRE 512 176 400 176
WIRE 512 224 512 176
WIRE -272 288 -272 240
WIRE 80 304 80 208
WIRE 80 304 -112 304
WIRE 512 352 512 288
WIRE -112 384 -112 304
WIRE -112 512 -112 464
FLAG -96 16 0
FLAG -96 -96 Vdd
FLAG 224 96 Vdd
FLAG 512 352 0
FLAG -112 512 0
FLAG -272 288 0
DATAFLAG 480 176 ""
SYMBOL voltage -96 -112 R0
WINDOW 123 0 0 Left 0
WINDOW 39 0 0 Left 0
SYMATTR InstName V3
SYMATTR Value 1.8
SYMBOL cap 496 224 R0
SYMATTR InstName C1
SYMATTR Value 5p
SYMBOL voltage -112 368 R0
WINDOW 123 24 124 Left 2
WINDOW 39 0 0 Left 0
SYMATTR Value2 AC 0.5 180
SYMATTR InstName V2
SYMATTR Value 0.9
SYMBOL rail_to_rail_opamp_withclassAB_108.5db 224 176 R0
SYMATTR InstName X1
SYMBOL voltage -272 144 R0
WINDOW 123 24 124 Left 2
WINDOW 39 0 0 Left 0
SYMATTR InstName V1
SYMATTR Value 0.9
SYMATTR Value2 AC 0.5 0
TEXT -192 568 Left 2 !.ac dec 100 1 10G
TEXT -192 616 Left 2 !;op dec 100 1 10G
