Version 4
SHEET 1 1500 680
WIRE 448 -64 48 -64
WIRE -96 16 -96 -16
WIRE -144 64 -320 64
WIRE -320 112 -320 64
WIRE 48 144 48 -64
WIRE 80 144 48 144
WIRE 448 176 448 -64
WIRE 448 176 400 176
WIRE 480 176 448 176
WIRE 512 176 480 176
WIRE 512 224 512 176
WIRE -144 256 -144 64
WIRE 32 256 -144 256
WIRE 32 304 32 256
WIRE 80 304 80 208
WIRE 80 304 32 304
WIRE -320 320 -320 192
WIRE -112 320 -112 304
WIRE -112 320 -320 320
WIRE 512 352 512 288
WIRE -112 384 -112 320
WIRE -112 512 -112 464
FLAG -96 16 0
FLAG -96 -96 Vdd
FLAG 224 96 Vdd
FLAG 512 352 0
FLAG -112 512 0
FLAG 480 176 vop
SYMBOL voltage -96 -112 R0
WINDOW 123 0 0 Left 0
WINDOW 39 0 0 Left 0
SYMATTR InstName V3
SYMATTR Value 1.8
SYMBOL cap 496 224 R0
SYMATTR InstName C1
SYMATTR Value 5p
SYMBOL voltage -112 368 R0
WINDOW 123 24 124 Left 2
WINDOW 39 0 0 Left 0
SYMATTR InstName V2
SYMATTR Value 0.9
SYMATTR Value2 AC 0.5 180
SYMBOL rail_to_rail_opamp_withclassAB_108.5db 224 176 R0
SYMATTR InstName X1
SYMBOL voltage -320 96 R0
WINDOW 123 0 0 Left 0
WINDOW 39 0 0 Left 0
SYMATTR InstName V1
SYMATTR Value PULSE(-0.45 0.45 0 0.001p 0.001p 0.25u 0.5u)
TEXT -192 568 Left 2 !;ac dec 100 1 10G
TEXT 536 -136 Left 2 !.measure tran trise TRIG V(vop) VAL=0.45 RISE=2 TARG V(vop) VAL=0.99 RISE=2
TEXT 544 -96 Left 2 !.measure tran tfall TRIG V(vop) VAL=1.35 FALL=2 TARG V(vop) VAL=0.81 FALL=2
TEXT -184 624 Left 2 !.tran 1u
